562785
  -OEChem-05182322272D

 12 11  0  0  0  0  0  0  0  0999 V2000
   25.3125   87.0000    0.0000 Cl  0  0  0  0  0  0  0  0  0  0  0  0
   28.1250   86.0258    0.0000 N   0  0  0  0  0  0  0  0  0  0  0  0
   26.6250   83.4277    0.0000 C   0  0  0  0  0  0  0  0  0  0  0  0
   28.1250   83.4277    0.0000 C   0  0  0  0  0  0  0  0  0  0  0  0
   28.8750   84.7267    0.0000 C   0  0  0  0  0  0  0  0  0  0  0  0
   25.8750   82.1286    0.0000 C   0  0  0  0  0  0  0  0  0  0  0  0
   25.8750   84.7267    0.0000 C   0  0  0  0  0  0  0  0  0  0  0  0
   24.3750   82.1286    0.0000 C   0  0  0  0  0  0  0  0  0  0  0  0
   24.3750   84.7267    0.0000 C   0  0  0  0  0  0  0  0  0  0  0  0
   23.6250   83.4277    0.0000 C   0  0  0  0  0  0  0  0  0  0  0  0
   30.3750   84.7267    0.0000 C   0  0  0  0  0  0  0  0  0  0  0  0
   26.6250   86.0258    0.0000 C   0  0  0  0  0  0  0  0  0  0  0  0
  2  5  1  0  0  0  0
  2 12  1  0  0  0  0
  3  4  1  0  0  0  0
  3  6  2  0  0  0  0
  3  7  1  0  0  0  0
  4  5  1  0  0  0  0
  5 11  1  0  0  0  0
  6  8  1  0  0  0  0
  7  9  2  0  0  0  0
  8 10  2  0  0  0  0
  9 10  1  0  0  0  0
M  END