unnamed
  Kekule  05112311402D

 22 23  0  0  0  0  0  0  0  0999 V2000
   13.3608   42.8000    0.0000 C   0  0  0  0  0  0  0  0  0  0  0  0
   14.0536   43.2000    0.0000 C   0  0  0  0  0  0  0  0  0  0  0  0
   14.0536   44.0000    0.0000 C   0  0  0  0  0  0  0  0  0  0  0  0
   13.3608   44.4000    0.0000 C   0  0  0  0  0  0  0  0  0  0  0  0
   12.6680   44.0000    0.0000 C   0  0  0  0  0  0  0  0  0  0  0  0
   12.6680   43.2000    0.0000 C   0  0  0  0  0  0  0  0  0  0  0  0
   14.7464   44.4000    0.0000 C   0  0  0  0  0  0  0  0  0  0  0  0
   15.4393   44.0000    0.0000 C   0  0  0  0  0  0  0  0  0  0  0  0
   16.1321   44.4000    0.0000 C   0  0  0  0  0  0  0  0  0  0  0  0
   16.1321   45.2000    0.0000 C   0  0  0  0  0  0  0  0  0  0  0  0
   15.4393   45.6000    0.0000 C   0  0  0  0  0  0  0  0  0  0  0  0
   14.7464   45.2000    0.0000 C   0  0  0  0  0  0  0  0  0  0  0  0
   16.8249   45.6000    0.0000 O   0  0  0  0  0  0  0  0  0  0  0  0
   11.9752   42.8000    0.0000 O   0  0  0  0  0  0  0  0  0  0  0  0
   11.2823   43.2000    0.0000 C   0  0  0  0  0  0  0  0  0  0  0  0
   11.9752   42.0000    0.0000 C   0  0  0  0  0  0  0  0  0  0  0  0
   17.5177   45.2000    0.0000 C   0  0  0  0  0  0  0  0  0  0  0  0
   16.8249   46.4000    0.0000 C   0  0  0  0  0  0  0  0  0  0  0  0
   15.4393   43.2000    0.0000 O   0  0  0  0  0  0  0  0  0  0  0  0
   15.4393   46.4000    0.0000 O   0  0  0  0  0  0  0  0  0  0  0  0
   13.3608   45.2000    0.0000 O   0  0  0  0  0  0  0  0  0  0  0  0
   13.3608   42.0000    0.0000 O   0  0  0  0  0  0  0  0  0  0  0  0
  1  2  2  0  0  0  0
  2  3  1  0  0  0  0
  3  4  2  0  0  0  0
  4  5  1  0  0  0  0
  5  6  2  0  0  0  0
  6  1  1  0  0  0  0
  3  7  1  0  0  0  0
  7  8  2  0  0  0  0
  8  9  1  0  0  0  0
  9 10  2  0  0  0  0
 10 11  1  0  0  0  0
 11 12  2  0  0  0  0
 12  7  1  0  0  0  0
 10 13  1  0  0  0  0
  6 14  1  0  0  0  0
 14 15  1  0  0  0  0
 14 16  1  0  0  0  0
 13 17  1  0  0  0  0
 13 18  1  0  0  0  0
  8 19  1  0  0  0  0
 11 20  1  0  0  0  0
  4 21  1  0  0  0  0
  1 22  1  0  0  0  0
M  END