unnamed
  Kekule  05112315252D

  6  6  0  0  0  0  0  0  0  0999 V2000
   12.1433   42.4556    0.0000 C   0  0  0  0  0  0  0  0  0  0  0  0
   12.8362   42.8556    0.0000 C   0  0  0  0  0  0  0  0  0  0  0  0
   12.8362   43.6556    0.0000 C   0  0  0  0  0  0  0  0  0  0  0  0
   12.1433   44.0556    0.0000 C   0  0  0  0  0  0  0  0  0  0  0  0
   11.4505   43.6556    0.0000 C   0  0  0  0  0  0  0  0  0  0  0  0
   11.4505   42.8556    0.0000 C   0  0  0  0  0  0  0  0  0  0  0  0
  1  2  2  0  0  0  0
  2  3  1  0  0  0  0
  3  4  2  0  0  0  0
  4  5  1  0  0  0  0
  5  6  2  0  0  0  0
  6  1  1  0  0  0  0
M  END