562785
  -OEChem-05182322272D

 12 11  0     1  0  0  0  0  0999 V2000
    0.8370    6.5454    0.0000 Cl  0  0  0  0  0  0  0  0  0  0  0  0
    3.6495    5.5712    0.0000 N   0  0  0  0  0  0  0  0  0  0  0  0
    2.1495    2.9731    0.0000 C   0  0  0  0  0  0  0  0  0  0  0  0
    3.6495    2.9731    0.0000 C   0  0  0  0  0  0  0  0  0  0  0  0
    4.3995    4.2721    0.0000 C   0  0  3  0  0  0  0  0  0  0  0  0
    1.3995    1.6740    0.0000 C   0  0  0  0  0  0  0  0  0  0  0  0
    1.3995    4.2721    0.0000 C   0  0  0  0  0  0  0  0  0  0  0  0
   -0.1005    1.6740    0.0000 C   0  0  0  0  0  0  0  0  0  0  0  0
   -0.1005    4.2721    0.0000 C   0  0  0  0  0  0  0  0  0  0  0  0
   -0.8505    2.9731    0.0000 C   0  0  0  0  0  0  0  0  0  0  0  0
    5.8995    4.2721    0.0000 C   0  0  0  0  0  0  0  0  0  0  0  0
    2.1495    5.5712    0.0000 C   0  0  0  0  0  0  0  0  0  0  0  0
  2  5  1  0  0  0  0
  2 12  1  0  0  0  0
  3  4  1  0  0  0  0
  3  6  2  0  0  0  0
  3  7  1  0  0  0  0
  4  5  1  0  0  0  0
  5 11  1  0  0  0  0
  6  8  1  0  0  0  0
  7  9  2  0  0  0  0
  8 10  2  0  0  0  0
  9 10  1  0  0  0  0
M  END
> <PUBCHEM_COMPOUND_ID_TYPE>
0

> <PUBCHEM_TOTAL_CHARGE>
0

> <PUBCHEM_SUBSTANCE_ID>
562785

> <PUBCHEM_SUBSTANCE_VERSION>
3

> <PUBCHEM_EXT_DATASOURCE_NAME>
DTP/NCI

> <PUBCHEM_EXT_DATASOURCE_REGID>
169505

> <PUBCHEM_SUBSTANCE_COMMENT>
DTP/NCI DIS cdk 1.4.4.  Release-October 2011.
Structure Evaluation:Consistent with Molecular Formula.
Deposition record created from database Chemistry on host DrZZLaptop on Oct 30, 2011

> <PUBCHEM_SUBSTANCE_SYNONYM>
(+)-2-Methylamino-2-phenylpropane hydrochloride
(+)-Metamphetamine hydrochloride
(+)-Methamphetamine chloride
(+)-Methamphetamine hydrochloride
(+)-Methaphetamine chloride
(+)-Methaphetamine hydrochloride
(+)-Methylamphetamine hydrochloride
(+)-N,.alpha.-Dimethylphenethylamine hydrochloride
(+)-N-Methylamphetamine hydrochloride
51-57-0
Adipex
Benzeneethanamine,.alpha.-dimethyl-, (S)-
Benzeneethanamine,.alpha.-dimethyl-, hydrochloride, (S)-
Chestox
D-N,.alpha.-Dimethylphenethylamine hydrochloride
D-N-Methyl-.beta.-phenylisopropylamine hydrochloride
D-O-E
DOE
Dee -10
Dee -5
Dee Dex 10
Deofed
Deoxyphedrine
Des-O-E
Des-Oxa-d
Desamine
Desepin
Desodex
Desoxedrine
Desoxo-5
Desoxyephedrine
Desoxyfed
Desoxyn
Desoxyne
Destim
Desyphed
Desyphed hydrochloride
Detrex
Dexoval
Dexoval hydrochloride
Dexstim
Dextim
Dosoxy
Doxyfed
Drinalfa
Efroxine
Efroxine hydrochloride
Eufodrinal
Gerovit
Hyphet
Isophen
Metamphetamine hydrochloride
Methamphetamine hydrochloride
Methamphetaminium chloride
Methaphetaminium chloride
Methedrine
Methedrine hydrochloride
Methylamphetamine
Methylamphetamine hydrochloride
Methylisomyn
N-Methylamphetamine hydrochloride
NSC-169505
NSC169505
Norodin hydrochloride
Obedrin-LA
Pervitin
Phenethylamine,.alpha.-dimethyl-, (S)-(+)-
Phenethylamine,.alpha.-dimethyl-, hydrochloride, (+)-
Phenethylamine,.alpha.-dimethyl-, hydrochloride, (S)-(+)-
S-(+)-Methamphetamine hydrochloride
Semoxydrine hydrochloride
Soxysympamine
Syndrox
Tonedron
Usaf el-36
WLN: 1MY1R &GH
component of Fetamin
d-Deoxyephedrine hydrochloride
d-Desoxyephedrine hydrochloride
d-Methamphetamine hydrochloride
d-Methaphetamine hydrochloride

> <PUBCHEM_GENERIC_REGISTRY_NAME>
51-57-0

> <PUBCHEM_XREF_EXT_ID>
169505

> <PUBCHEM_EXT_DATASOURCE_URL>
http://dtp.nci.nih.gov/

> <PUBCHEM_EXT_SUBSTANCE_URL>
http://dtp.nci.nih.gov/dtpstandard/servlet/dwindex?searchtype=NSC&outputformat=html&searchlist=169505

> <PUBCHEM_CID_ASSOCIATIONS>
9306  1
313  2
1206  2

> <PUBCHEM_COORDINATE_TYPE>
1
3

$$$$
50004362
  -OEChem-05182322272D

 13 12  0     1  0  0  0  0  0999 V2000
    5.5875   -0.6833    0.0000 Cl  0  0  0  0  0  0  0  0  0  0  0  0
    4.0177   -1.4841    0.0000 N   0  0  0  0  0  0  0  0  0  0  0  0
    1.8758   -1.9047    0.0000 C   0  0  0  0  0  0  0  0  0  0  0  0
    3.3047   -1.8993    0.0000 C   0  0  3  0  0  0  0  0  0  0  0  0
    2.5887   -1.4895    0.0000 C   0  0  0  0  0  0  0  0  0  0  0  0
    1.1604   -1.4955    0.0000 C   0  0  0  0  0  0  0  0  0  0  0  0
    1.8787   -2.7352    0.0000 C   0  0  0  0  0  0  0  0  0  0  0  0
    0.4486   -1.9083    0.0000 C   0  0  0  0  0  0  0  0  0  0  0  0
    1.1622   -3.1485    0.0000 C   0  0  0  0  0  0  0  0  0  0  0  0
    0.4474   -2.7357    0.0000 C   0  0  0  0  0  0  0  0  0  0  0  0
    3.3079   -2.7243    0.0000 C   0  0  0  0  0  0  0  0  0  0  0  0
    4.7337   -1.8939    0.0000 C   0  0  0  0  0  0  0  0  0  0  0  0
    4.0145   -0.6591    0.0000 H   0  0  0  0  0  0  0  0  0  0  0  0
  2  4  1  0  0  0  0
  2 12  1  0  0  0  0
  2 13  1  0  0  0  0
  3  5  1  0  0  0  0
  3  6  2  0  0  0  0
  3  7  1  0  0  0  0
  4  5  1  0  0  0  0
  4 11  1  1  0  0  0
  6  8  1  0  0  0  0
  7  9  2  0  0  0  0
  8 10  2  0  0  0  0
  9 10  1  0  0  0  0
M  END
> <PUBCHEM_COMPOUND_ID_TYPE>
0

> <PUBCHEM_TOTAL_CHARGE>
0

> <PUBCHEM_SUBSTANCE_ID>
50004362

> <PUBCHEM_SUBSTANCE_VERSION>
1

> <PUBCHEM_EXT_DATASOURCE_NAME>
LeadScope

> <PUBCHEM_EXT_DATASOURCE_REGID>
LS-103366

> <PUBCHEM_SUBSTANCE_SYNONYM>
(+)-(S)-N,alpha-Dimethylphenethylamine hydrochloride
(+)-2-Methylamino-2-phenylpropane hydrochloride
(+)-L-Methamphetamine hydrochloride
(+)-Methamphetamine chloride
(+)-Methamphetamine hydrochloride
(+)-Methylamphetamine hydrochloride
(+)-N,alpha-Dimethylphenethylamine hydrochloride
AI3-20155
Adipex
Benzeneethanamine, N,alpha-dimethyl-, hydrochloride, (S)-
Benzeneethanamine, N,alpha-dimethyl-, hydrochloride, (alphaS)-
C10H15N.HCl
Chestox
D-O-E
DOE
Dee -10
Dee -5
Dee Dex 10
Deofed
Des-O-E
Des-Oxa-d
Desepin
Desodex
Desoxo-5
Desoxyfed
Desoxyn
Desoxyne
Destim
Desyphed
Dexoval
Dexstim
Dextim
Dosoxy
Doxyfed
Drinalfa
EINECS 200-106-9
Efroxine
Eufodrinal
Gerovit
Hyphet
Isophen
Isophen (VAN)
LS-103366
METHAMPEX
METHAMPHETAMINE HCL
Metamphetamine hydrochloride
Methamphetamine Hydrochloride
Methamphetaminium chloride
Methaphetaminium chloride
Methedrine hydrochloride
Methylamphetamine hydrochloride
Methylisomyn
N-Methylamphetamine hydrochloride
NSC 169505
Norodin hydrochloride
Obedrin-LA
Pervitin
Phenethylamine, N,alpha-dimethyl-, hydrochloride, (+)-
Phenethylamine, N,alpha-dimethyl-, hydrochloride, (S)-(+)-
Philopon
S-(+)-Methamphetamine hydrochloride
Semoxydrine hydrochloride
Soxysympamine
Syndrox
Tonedron
d-Deoxyephedrine hydrochloride
d-Desoxyephedrine hydrochloride
d-Methamphetamine hydrochloride
d-Methaphetamine hydrochloride
d-Methylamphetamine hydrochloride
d-N,alpha-Dimethylphenethylamine hydrochloride
d-N-Methyl-beta-phenylisopropylamine hydrochloride

> <PUBCHEM_XREF_EXT_ID>
LS-103366

> <PUBCHEM_EXT_DATASOURCE_URL>
http://www.leadscope.com

> <PUBCHEM_EXT_SUBSTANCE_URL>
http://www.leadscope.com/structure_search_results.php?ss_string=LS-103366

> <PUBCHEM_CID_ASSOCIATIONS>
66124  1
313  2
10836  2

> <PUBCHEM_COORDINATE_TYPE>
1
3

> <PUBCHEM_BONDANNOTATIONS>
4  11  5

$$$$
135026078
  -OEChem-05182322272D

 12 11  0     1  0  0  0  0  0999 V2000
   -4.6375   -5.2585    0.0000 Cl  0  0  0  0  0  0  0  0  0  0  0  0
   -7.2383   -3.7633    0.0000 C   0  0  0  0  0  0  0  0  0  0  0  0
   -8.5387   -3.0157    0.0000 C   0  0  0  0  0  0  0  0  0  0  0  0
   -8.5415   -1.5157    0.0000 C   0  0  0  0  0  0  0  0  0  0  0  0
   -7.2438   -0.7633    0.0000 C   0  0  0  0  0  0  0  0  0  0  0  0
   -5.9434   -1.5109    0.0000 C   0  0  0  0  0  0  0  0  0  0  0  0
   -5.9406   -3.0109    0.0000 C   0  0  0  0  0  0  0  0  0  0  0  0
   -4.6457   -0.7585    0.0000 C   0  0  0  0  0  0  0  0  0  0  0  0
   -3.3453   -1.5061    0.0000 C   0  0  3  0  0  0  0  0  0  0  0  0
   -3.3426   -3.0061    0.0000 C   0  0  0  0  0  0  0  0  0  0  0  0
   -2.0477   -0.7538    0.0000 N   0  0  0  0  0  0  0  0  0  0  0  0
   -0.7472   -1.5014    0.0000 C   0  0  0  0  0  0  0  0  0  0  0  0
  2  7  1  0  0  0  0
  3  4  1  0  0  0  0
  6  8  1  0  0  0  0
  8  9  1  0  0  0  0
  4  5  2  0  0  0  0
  9 10  1  0  0  0  0
  2  3  2  0  0  0  0
  5  6  1  0  0  0  0
  9 11  1  1  0  0  0
  6  7  2  0  0  0  0
 11 12  1  0  0  0  0
M  END
> <PUBCHEM_COMPOUND_ID_TYPE>
0

> <PUBCHEM_TOTAL_CHARGE>
0

> <PUBCHEM_SUBSTANCE_ID>
135026078

> <PUBCHEM_SUBSTANCE_VERSION>
9

> <PUBCHEM_EXT_DATASOURCE_NAME>
ChemIDplus

> <PUBCHEM_EXT_DATASOURCE_REGID>
0000051570

> <PUBCHEM_SUBSTANCE_COMMENT>
Stimulant (Central)
[Other Registry Number] 6823-88-7
Central Nervous System Stimulants
[Other Registry Number] 51176-61-5
Mutation Data
Reproductive Effect
Tumor Data
Drug / Therapeutic Agent
997F43Z9CV
0000051570

> <PUBCHEM_SUBSTANCE_SYNONYM>
Methamphetamine hydrochloride [USP:JAN]
997F43Z9CV
51-57-0
Benzeneethanamine, N,alpha-dimethyl-, hydrochloride, (alphaS)-
Madrine
Gerobit
UNII-997F43Z9CV
Meth
Methamphetamine hydrochloride
Phenethylamine, N,alpha-dimethyl-, hydrochloride, (S)-(+)-
D-O-E
Adipex
AI3-20155
(+)-N,alpha-Dimethylphenethylamine hydrochloride
DOE
Dexstim
Dextim
d-N,alpha-Dimethylphenethylamine hydrochloride
Dosoxy
Doxyfed
Drinalfa
Efroxine
EINECS 200-106-9
Eufodrinal
Gerovit
Hyphet
Isophen
Isophen (VAN)
Metamphetamine hydrochloride
(+)-Methamphetamine chloride
(+)-Methamphetamine hydrochloride
d-Methamphetamine hydrochloride
Chestox
Dee -10
Dee -5
Dee Dex 10
Deofed
d-Deoxyephedrine hydrochloride
Des-O-E
Desepin
Desodex
Des-oxa-D
Desoxo-5
d-Desoxyephedrine hydrochloride
Desoxyfed
Desoxyn
Desoxyne
Destim
Desyphed
Dexoval
S-(+)-Methamphetamine hydrochloride
Methamphetaminium chloride
d-Methaphetamine hydrochloride
Methaphetaminium chloride
Methedrine hydrochloride
(+)-2-Methylamino-2-phenylpropane hydrochloride
Methylamphetamine hydrochloride
d-Methylamphetamine hydrochloride
N-Methylamphetamine hydrochloride
Methylisomyn
d-N-Methyl-beta-phenylisopropylamine hydrochloride
Norodin hydrochloride
NSC 169505
Obedrin-LA
Pervitin
Phenethylamine, N,alpha-dimethyl-, hydrochloride, (+)-
Philopon
Semoxydrine hydrochloride
Soxysympamine
Syndrox
Tonedron
(+)-L-Methamphetamine hydrochloride
(+)-Methylamphetamine hydrochloride
Methampex
Methamphetamine HCl
(+)-(S)-N,alpha-Dimethylphenethylamine hydrochloride
Benzeneethanamine, N,alpha-dimethyl-, hydrochloride, (S)-
Benzeneethanamine, N,alpha-dimethyl-, hydrochloride (1:1), (alphaS)-

> <PUBCHEM_GENERIC_REGISTRY_NAME>
51-57-0

> <PUBCHEM_XREF_EXT_ID>
0000051570

> <PUBCHEM_EXT_DATASOURCE_URL>
https://pubchem.ncbi.nlm.nih.gov/source/ChemIDplus

> <PUBCHEM_EXT_SUBSTANCE_URL>
https://pubchem.ncbi.nlm.nih.gov/substance/?source=ChemIDplus&sourceid=0000051570

> <PUBCHEM_CID_ASSOCIATIONS>
66124  1
313  2
10836  2

> <PUBCHEM_COORDINATE_TYPE>
1
3

> <PUBCHEM_BONDANNOTATIONS>
9  11  5

$$$$
319067655
  -OEChem-05182322272D

 28 27  0     1  0  0  0  0  0999 V2000
    5.6720    2.8285    0.0000 Cl  0  0  0  0  0  0  0  0  0  0  0  0
    2.2690    5.1200    0.0000 N   0  0  0  0  0  0  0  0  0  0  0  0
    2.2690    4.1200    0.0000 C   0  0  3  0  0  0  0  0  0  0  0  0
    1.4030    3.6200    0.0000 C   0  0  0  0  0  0  0  0  0  0  0  0
    1.4030    2.6200    0.0000 C   0  0  0  0  0  0  0  0  0  0  0  0
    3.1350    3.6200    0.0000 C   0  0  0  0  0  0  0  0  0  0  0  0
    0.5369    2.1200    0.0000 C   0  0  0  0  0  0  0  0  0  0  0  0
    2.2690    2.1200    0.0000 C   0  0  0  0  0  0  0  0  0  0  0  0
    3.1350    5.6200    0.0000 C   0  0  0  0  0  0  0  0  0  0  0  0
    0.5369    1.1200    0.0000 C   0  0  0  0  0  0  0  0  0  0  0  0
    2.2690    1.1200    0.0000 C   0  0  0  0  0  0  0  0  0  0  0  0
    1.4030    0.6200    0.0000 C   0  0  0  0  0  0  0  0  0  0  0  0
    3.0051    4.5450    0.0000 H   0  0  0  0  0  0  0  0  0  0  0  0
    1.1909    4.2026    0.0000 H   0  0  0  0  0  0  0  0  0  0  0  0
    0.7924    3.5123    0.0000 H   0  0  0  0  0  0  0  0  0  0  0  0
    2.8250    3.0831    0.0000 H   0  0  0  0  0  0  0  0  0  0  0  0
    3.6720    3.3100    0.0000 H   0  0  0  0  0  0  0  0  0  0  0  0
    3.4450    4.1569    0.0000 H   0  0  0  0  0  0  0  0  0  0  0  0
    1.7320    5.4300    0.0000 H   0  0  0  0  0  0  0  0  0  0  0  0
    0.0000    2.4300    0.0000 H   0  0  0  0  0  0  0  0  0  0  0  0
    2.8059    2.4300    0.0000 H   0  0  0  0  0  0  0  0  0  0  0  0
    3.4450    5.0831    0.0000 H   0  0  0  0  0  0  0  0  0  0  0  0
    3.6720    5.9300    0.0000 H   0  0  0  0  0  0  0  0  0  0  0  0
    2.8250    6.1569    0.0000 H   0  0  0  0  0  0  0  0  0  0  0  0
    0.0000    0.8100    0.0000 H   0  0  0  0  0  0  0  0  0  0  0  0
    2.8059    0.8100    0.0000 H   0  0  0  0  0  0  0  0  0  0  0  0
    1.4030    0.0000    0.0000 H   0  0  0  0  0  0  0  0  0  0  0  0
    6.6720    2.8285    0.0000 H   0  0  0  0  0  0  0  0  0  0  0  0
  1 28  1  0  0  0  0
  2  3  1  0  0  0  0
  2  9  1  0  0  0  0
  2 19  1  0  0  0  0
  3  4  1  0  0  0  0
  3  6  1  0  0  0  0
  3 13  1  0  0  0  0
  4  5  1  0  0  0  0
  4 14  1  0  0  0  0
  4 15  1  0  0  0  0
  5  7  2  0  0  0  0
  5  8  1  0  0  0  0
  6 16  1  0  0  0  0
  6 17  1  0  0  0  0
  6 18  1  0  0  0  0
  7 10  1  0  0  0  0
  7 20  1  0  0  0  0
  8 11  2  0  0  0  0
  8 21  1  0  0  0  0
  9 22  1  0  0  0  0
  9 23  1  0  0  0  0
  9 24  1  0  0  0  0
 10 12  2  0  0  0  0
 10 25  1  0  0  0  0
 11 12  1  0  0  0  0
 11 26  1  0  0  0  0
 12 27  1  0  0  0  0
M  END
> <PUBCHEM_COMPOUND_ID_TYPE>
0

> <PUBCHEM_TOTAL_CHARGE>
0

> <PUBCHEM_HEAVY_ATOM_COUNT>
12

> <PUBCHEM_ATOM_DEF_STEREO_COUNT>
0

> <PUBCHEM_ATOM_UDEF_STEREO_COUNT>
1

> <PUBCHEM_BOND_DEF_STEREO_COUNT>
0

> <PUBCHEM_BOND_UDEF_STEREO_COUNT>
0

> <PUBCHEM_ISOTOPIC_ATOM_COUNT>
0

> <PUBCHEM_COMPONENT_COUNT>
2

> <PUBCHEM_CACTVS_TAUTO_COUNT>
1

> <PUBCHEM_SUBSTANCE_ID>
319067655

> <PUBCHEM_SUBSTANCE_VERSION>
1

> <PUBCHEM_EXT_DATASOURCE_NAME>
15207

> <PUBCHEM_EXT_DATASOURCE_REGID>
ToxPlanet-NTEtNTctMDkzMDY=

> <PUBCHEM_SUBSTANCE_SYNONYM>
(+)-2-Methylamino-2-phenylpropane hydrochloride
(+)-L-Methamphetamine hydrochloride
(+)-Methamphetamine chloride
(+)-Methamphetamine hydrochloride
(+)-Methylamphetamine hydrochloride
(+)-N,alpha-Dimethylphenethylamine hydrochloride
51-57-0
AI3-20155
Adipex
Benzeneethanamine, N,.alpha.-dimethyl-, hydrochloride, (.alpha.S)-
Benzeneethanamine, N,alpha-dimethyl-, hydrochloride, (S)-
C(C(C)NC)c1ccccc1
C10-H15-N.Cl-H
C10H15N.ClH
Chestox
D-O-E
DOE
Dee -10
Dee -5
Dee Dex 10
Deofed
Des-O-E
Des-Oxa-d
Desepin
Desodex
Desoxo-5
Desoxyfed
Desoxyn
Desoxyne
Destim
Desyphed
Dexoval
Dexstim
Dextim
Dosoxy
Doxyfed
Drinalfa
EINECS 200-106-9
Efroxine
Eufodrinal
Gerobit
Gerovit
Hyphet
Isophen
Isophen (VAN)
Madrine
Metamphetamine hydrochloride
Meth
Methampex
Methamphetamine HCl
Methamphetamine hydrochloride
Methamphetamine hydrochloride [USP:JAN]
Methamphetaminium chloride
Methaphetaminium chloride
Methedrine hydrochloride
Methylamphetamine hydrochloride
Methylisomyn
N-Methylamphetamine hydrochloride
NSC 169505
Norodin hydrochloride
Obedrin-LA
Pervitin
Phenethylamine, N,alpha-dimethyl-, hydrochloride, (+)-
Philopon
S-(+)-Methamphetamine hydrochloride
Semoxydrine hydrochloride
Soxysympamine
Syndrox
Tonedron
UNII-997F43Z9CV
d-Deoxyephedrine hydrochloride
d-Desoxyephedrine hydrochloride
d-Methamphetamine hydrochloride
d-Methaphetamine hydrochloride
d-Methylamphetamine hydrochloride
d-N,alpha-Dimethylphenethylamine hydrochloride
d-N-Methyl-beta-phenylisopropylamine hydrochloride
methamphetaminhydrochlorid-

> <PUBCHEM_GENERIC_REGISTRY_NAME>
51-57-0

> <PUBCHEM_XREF_EXT_ID>
ToxPlanet-NTEtNTctMDkzMDY=

> <PUBCHEM_EXT_DATASOURCE_URL>
https:/www/toxplanet.com

> <PUBCHEM_EXT_SUBSTANCE_URL>
https://search.toxplanet.com/CategorySearch.aspx?cas_no=51-57-0

> <PUBCHEM_CID_ASSOCIATIONS>
9306  1
313  2
1206  2

> <PUBCHEM_COORDINATE_TYPE>
1
5
255

> <PUBCHEM_BONDANNOTATIONS>
10  12  8
11  12  8
3  13  3
5  7  8
5  8  8
7  10  8
8  11  8

$$$$
319106669
  -OEChem-05182322272D

 28 27  0     1  0  0  0  0  0999 V2000
    5.6720    2.8285    0.0000 Cl  0  0  0  0  0  0  0  0  0  0  0  0
    2.2690    5.1200    0.0000 N   0  0  0  0  0  0  0  0  0  0  0  0
    2.2690    4.1200    0.0000 C   0  0  3  0  0  0  0  0  0  0  0  0
    1.4030    3.6200    0.0000 C   0  0  0  0  0  0  0  0  0  0  0  0
    1.4030    2.6200    0.0000 C   0  0  0  0  0  0  0  0  0  0  0  0
    3.1350    3.6200    0.0000 C   0  0  0  0  0  0  0  0  0  0  0  0
    0.5369    2.1200    0.0000 C   0  0  0  0  0  0  0  0  0  0  0  0
    2.2690    2.1200    0.0000 C   0  0  0  0  0  0  0  0  0  0  0  0
    3.1350    5.6200    0.0000 C   0  0  0  0  0  0  0  0  0  0  0  0
    0.5369    1.1200    0.0000 C   0  0  0  0  0  0  0  0  0  0  0  0
    2.2690    1.1200    0.0000 C   0  0  0  0  0  0  0  0  0  0  0  0
    1.4030    0.6200    0.0000 C   0  0  0  0  0  0  0  0  0  0  0  0
    2.8059    4.4300    0.0000 H   0  0  0  0  0  0  0  0  0  0  0  0
    1.1909    4.2026    0.0000 H   0  0  0  0  0  0  0  0  0  0  0  0
    0.7924    3.5123    0.0000 H   0  0  0  0  0  0  0  0  0  0  0  0
    2.8250    3.0831    0.0000 H   0  0  0  0  0  0  0  0  0  0  0  0
    3.6720    3.3100    0.0000 H   0  0  0  0  0  0  0  0  0  0  0  0
    3.4450    4.1569    0.0000 H   0  0  0  0  0  0  0  0  0  0  0  0
    1.7320    5.4300    0.0000 H   0  0  0  0  0  0  0  0  0  0  0  0
    0.0000    2.4300    0.0000 H   0  0  0  0  0  0  0  0  0  0  0  0
    2.8059    2.4300    0.0000 H   0  0  0  0  0  0  0  0  0  0  0  0
    3.4450    5.0831    0.0000 H   0  0  0  0  0  0  0  0  0  0  0  0
    3.6720    5.9300    0.0000 H   0  0  0  0  0  0  0  0  0  0  0  0
    2.8250    6.1569    0.0000 H   0  0  0  0  0  0  0  0  0  0  0  0
    0.0000    0.8100    0.0000 H   0  0  0  0  0  0  0  0  0  0  0  0
    2.8059    0.8100    0.0000 H   0  0  0  0  0  0  0  0  0  0  0  0
    1.4030    0.0000    0.0000 H   0  0  0  0  0  0  0  0  0  0  0  0
    6.6720    2.8285    0.0000 H   0  0  0  0  0  0  0  0  0  0  0  0
  1 28  1  0  0  0  0
  3  2  1  1  0  0  0
  2  9  1  0  0  0  0
  2 19  1  0  0  0  0
  3  4  1  0  0  0  0
  3  6  1  0  0  0  0
  3 13  1  0  0  0  0
  4  5  1  0  0  0  0
  4 14  1  0  0  0  0
  4 15  1  0  0  0  0
  5  7  2  0  0  0  0
  5  8  1  0  0  0  0
  6 16  1  0  0  0  0
  6 17  1  0  0  0  0
  6 18  1  0  0  0  0
  7 10  1  0  0  0  0
  7 20  1  0  0  0  0
  8 11  2  0  0  0  0
  8 21  1  0  0  0  0
  9 22  1  0  0  0  0
  9 23  1  0  0  0  0
  9 24  1  0  0  0  0
 10 12  2  0  0  0  0
 10 25  1  0  0  0  0
 11 12  1  0  0  0  0
 11 26  1  0  0  0  0
 12 27  1  0  0  0  0
M  END
> <PUBCHEM_COMPOUND_ID_TYPE>
0

> <PUBCHEM_TOTAL_CHARGE>
0

> <PUBCHEM_HEAVY_ATOM_COUNT>
12

> <PUBCHEM_ATOM_DEF_STEREO_COUNT>
1

> <PUBCHEM_ATOM_UDEF_STEREO_COUNT>
0

> <PUBCHEM_BOND_DEF_STEREO_COUNT>
0

> <PUBCHEM_BOND_UDEF_STEREO_COUNT>
0

> <PUBCHEM_ISOTOPIC_ATOM_COUNT>
0

> <PUBCHEM_COMPONENT_COUNT>
2

> <PUBCHEM_CACTVS_TAUTO_COUNT>
1

> <PUBCHEM_SUBSTANCE_ID>
319106669

> <PUBCHEM_SUBSTANCE_VERSION>
1

> <PUBCHEM_EXT_DATASOURCE_NAME>
15207

> <PUBCHEM_EXT_DATASOURCE_REGID>
ToxPlanet-NTEtNTctMDY2MTI0

> <PUBCHEM_SUBSTANCE_SYNONYM>
(+)-2-Methylamino-2-phenylpropane hydrochloride
(+)-L-Methamphetamine hydrochloride
(+)-Methamphetamine chloride
(+)-Methamphetamine hydrochloride
(+)-Methylamphetamine hydrochloride
(+)-N,alpha-Dimethylphenethylamine hydrochloride
51-57-0
AI3-20155
Adipex
Benzeneethanamine, N,.alpha.-dimethyl-, hydrochloride, (.alpha.S)-
Benzeneethanamine, N,alpha-dimethyl-, hydrochloride, (S)-
C(C(C)NC)c1ccccc1
C10-H15-N.Cl-H
C10H15N.ClH
Chestox
D-O-E
DOE
Dee -10
Dee -5
Dee Dex 10
Deofed
Des-O-E
Des-Oxa-d
Desepin
Desodex
Desoxo-5
Desoxyfed
Desoxyn
Desoxyne
Destim
Desyphed
Dexoval
Dexstim
Dextim
Dosoxy
Doxyfed
Drinalfa
EINECS 200-106-9
Efroxine
Eufodrinal
Gerobit
Gerovit
Hyphet
Isophen
Isophen (VAN)
Madrine
Metamphetamine hydrochloride
Meth
Methampex
Methamphetamine HCl
Methamphetamine hydrochloride
Methamphetamine hydrochloride [USP:JAN]
Methamphetaminium chloride
Methaphetaminium chloride
Methedrine hydrochloride
Methylamphetamine hydrochloride
Methylisomyn
N-Methylamphetamine hydrochloride
NSC 169505
Norodin hydrochloride
Obedrin-LA
Pervitin
Phenethylamine, N,alpha-dimethyl-, hydrochloride, (+)-
Philopon
S-(+)-Methamphetamine hydrochloride
Semoxydrine hydrochloride
Soxysympamine
Syndrox
Tonedron
UNII-997F43Z9CV
d-Deoxyephedrine hydrochloride
d-Desoxyephedrine hydrochloride
d-Methamphetamine hydrochloride
d-Methaphetamine hydrochloride
d-Methylamphetamine hydrochloride
d-N,alpha-Dimethylphenethylamine hydrochloride
d-N-Methyl-beta-phenylisopropylamine hydrochloride
methamphetaminhydrochlorid-

> <PUBCHEM_GENERIC_REGISTRY_NAME>
51-57-0

> <PUBCHEM_XREF_EXT_ID>
ToxPlanet-NTEtNTctMDY2MTI0

> <PUBCHEM_EXT_DATASOURCE_URL>
https:/www/toxplanet.com

> <PUBCHEM_EXT_SUBSTANCE_URL>
https://search.toxplanet.com/CategorySearch.aspx?cas_no=51-57-0

> <PUBCHEM_CID_ASSOCIATIONS>
66124  1
313  2
10836  2

> <PUBCHEM_COORDINATE_TYPE>
1
5
255

> <PUBCHEM_BONDANNOTATIONS>
10  12  8
11  12  8
3  2  5
5  7  8
5  8  8
7  10  8
8  11  8

$$$$
481107351
  -OEChem-05182322272D

 28 27  0     1  0  0  0  0  0999 V2000
    5.6720    2.8285    0.0000 Cl  0  0  0  0  0  0  0  0  0  0  0  0
    2.2690    5.1200    0.0000 N   0  0  0  0  0  0  0  0  0  0  0  0
    2.2690    4.1200    0.0000 C   0  0  2  0  0  0  0  0  0  0  0  0
    1.4030    3.6200    0.0000 C   0  0  0  0  0  0  0  0  0  0  0  0
    1.4030    2.6200    0.0000 C   0  0  0  0  0  0  0  0  0  0  0  0
    3.1350    3.6200    0.0000 C   0  0  0  0  0  0  0  0  0  0  0  0
    0.5369    2.1200    0.0000 C   0  0  0  0  0  0  0  0  0  0  0  0
    2.2690    2.1200    0.0000 C   0  0  0  0  0  0  0  0  0  0  0  0
    3.1350    5.6200    0.0000 C   0  0  0  0  0  0  0  0  0  0  0  0
    0.5369    1.1200    0.0000 C   0  0  0  0  0  0  0  0  0  0  0  0
    2.2690    1.1200    0.0000 C   0  0  0  0  0  0  0  0  0  0  0  0
    1.4030    0.6200    0.0000 C   0  0  0  0  0  0  0  0  0  0  0  0
    2.8059    4.4300    0.0000 H   0  0  0  0  0  0  0  0  0  0  0  0
    1.1909    4.2026    0.0000 H   0  0  0  0  0  0  0  0  0  0  0  0
    0.7924    3.5123    0.0000 H   0  0  0  0  0  0  0  0  0  0  0  0
    2.8250    3.0831    0.0000 H   0  0  0  0  0  0  0  0  0  0  0  0
    3.6720    3.3100    0.0000 H   0  0  0  0  0  0  0  0  0  0  0  0
    3.4450    4.1569    0.0000 H   0  0  0  0  0  0  0  0  0  0  0  0
    1.7320    5.4300    0.0000 H   0  0  0  0  0  0  0  0  0  0  0  0
    0.0000    2.4300    0.0000 H   0  0  0  0  0  0  0  0  0  0  0  0
    2.8059    2.4300    0.0000 H   0  0  0  0  0  0  0  0  0  0  0  0
    3.4450    5.0831    0.0000 H   0  0  0  0  0  0  0  0  0  0  0  0
    3.6720    5.9300    0.0000 H   0  0  0  0  0  0  0  0  0  0  0  0
    2.8250    6.1569    0.0000 H   0  0  0  0  0  0  0  0  0  0  0  0
    0.0000    0.8100    0.0000 H   0  0  0  0  0  0  0  0  0  0  0  0
    2.8059    0.8100    0.0000 H   0  0  0  0  0  0  0  0  0  0  0  0
    1.4030    0.0000    0.0000 H   0  0  0  0  0  0  0  0  0  0  0  0
    6.6720    2.8285    0.0000 H   0  0  0  0  0  0  0  0  0  0  0  0
  1 28  1  0  0  0  0
  3  2  1  1  0  0  0
  2  9  1  0  0  0  0
  2 19  1  0  0  0  0
  3  4  1  0  0  0  0
  3  6  1  0  0  0  0
  3 13  1  0  0  0  0
  4  5  1  0  0  0  0
  4 14  1  0  0  0  0
  4 15  1  0  0  0  0
  5  7  2  0  0  0  0
  5  8  1  0  0  0  0
  6 16  1  0  0  0  0
  6 17  1  0  0  0  0
  6 18  1  0  0  0  0
  7 10  1  0  0  0  0
  7 20  1  0  0  0  0
  8 11  2  0  0  0  0
  8 21  1  0  0  0  0
  9 22  1  0  0  0  0
  9 23  1  0  0  0  0
  9 24  1  0  0  0  0
 10 12  2  0  0  0  0
 10 25  1  0  0  0  0
 11 12  1  0  0  0  0
 11 26  1  0  0  0  0
 12 27  1  0  0  0  0
M  END
> <PUBCHEM_COMPOUND_ID_TYPE>
0

> <PUBCHEM_SUBSTANCE_ID>
481107351

> <PUBCHEM_SUBSTANCE_VERSION>
1

> <PUBCHEM_EXT_DATASOURCE_NAME>
26136

> <PUBCHEM_EXT_DATASOURCE_REGID>
6011

> <PUBCHEM_SUBSTANCE_SYNONYM>
Methamphetamine Hydrochloride
Desoxyn
Methampex
997F43Z9CV
Benzeneethanamine, N,alpha-dimethyl-, hydrochloride
(+)-N,alpha-Dimethylphenethylamine hydrochloride
(2S)-N-Methyl-1-phenylpropan-2-amine monohydrochloride
Benzeneethanamine, N,alpha-dimethyl-, hydrochloride, (S)-
CHEBI:35340
D-O-E
Methamphetamine HCl
Methamphetaminium chloride
d-Methaphetamine hydrochloride
d-N-Methyl-beta-phenylisopropylamine Hydrochloride
(+)-(S)-N,alpha-DIMETHYLPHENETHYLAMINE HYDROCHLORIDE
(+)-2-Methylamino-2-phenylpropane hydrochloride
(+)-Methamphetamine chloride
(+)-Methylamphetamine hydrochloride
(2S)-N-methyl-1-phenylpropan-2-amine hydrochloride
(S)-(+)-methamphetamine hydrochloride
AI3-20155
Adipex
Benzeneethanamine, N,alpha-dimethyl-, hydrochloride, (alphaS)-
Chestox
DOE
Dee Dex 10
Dee-10
Dee-5
Deofed
Des-O-E
Desepin
Desodex
Desoxo-5
Desoxyne
Desyphed
Dexstim
Dextim
Dosoxy
Doxyfed
EINECS 200-106-9
Eufodrinal
Gerovit
Hydrochloride, Methamphetamine
Hyphet
METAMFETAMINE HYDROCHLORIDE
METAMFETAMINE HYDROCHLORIDE (MART.)
METHAMPHETAMINE HYDROCHLORIDE (USP MONOGRAPH)
METHAMPHETAMINE HYDROCHLORIDE CII
METHAMPHETAMINE HYDROCHLORIDE CII (USP-RS)
Metamphetamine hydrochloride
Methaphetaminium chloride
Methedrine hydrochloride
N-Methylamphetamine hydrochloride
N-methyl-1-phenyl-propan-2-amine
NSC 169505
NSC-169505
NSC169505
Norodin hydrochloride
Obedrin-LA
Phenethylamine, N,alpha-dimethyl-, hydrochloride, (+)-
Phenethylamine, N,alpha-dimethyl-, hydrochloride, (S)-(+)-
Philopon
Semoxydrine hydrochloride
UNII-997F43Z9CV
d-Deoxyephedrine hydrochloride
d-Desoxyephedrine hydrochloride
d-Methamphetamine hydrochloride
d-Methylamphetamine hydrochloride
d-N,alpha-Dimethylphenethylamine hydrochloride
methamphetamine hydrogen chloride

> <PUBCHEM_CID_ASSOCIATIONS>
66124  1
313  2
10836  2

> <PUBCHEM_COORDINATE_TYPE>
1
5
255

> <PUBCHEM_BONDANNOTATIONS>
10  12  8
11  12  8
3  2  5
5  7  8
5  8  8
7  10  8
8  11  8

$$$$
